20
abcd
 H                  -1.8014041  0.0000000  2.3059582
 H                  -1.4921600  0.0000000  1.3549755
 H                  -1.1829158  0.0000000  0.4039928
 H                  -0.8736716  0.0000000 -0.5469898
 H                  -0.5644275  0.0000000 -1.4979725
 H                  -0.2551833  0.0000000 -2.4489552
 H                   0.0540609  0.0000000 -3.3999379
 H                   0.3633051  0.0000000 -4.3509205
 H                   0.6725492  0.0000000 -5.3019032
 H                   0.9817934  0.0000000 -6.2528859
 H                  -0.8504215  0.0000000  2.6152023
 H                  -0.5411773  0.0000000  1.6642197
 H                  -0.2319331  0.0000000  0.7132370
 H                   0.0773110  0.0000000 -0.2377457
 H                   0.3865552  0.0000000 -1.1887283
 H                   2.9535092  0.0000000  3.8521790
 H                   2.0025265  0.0000000  3.5429349
 H                   1.0515439  0.0000000  3.2336907
 H                   0.1005612  0.0000000  2.9244465
 H                  -0.8504215  0.0000000  2.6152023
