20
abcd
 C                   1.0000000  5.0000000  0.0000000
 C                   2.0000000  5.0000000  0.0000000
 C                   3.0000000  5.0000000  0.0000000
 C                   4.0000000  5.0000000  0.0000000
 C                   5.0000000  5.0000000  0.0000000
 C                   6.0000000  5.0000000  0.0000000
 C                   7.0000000  5.0000000  0.0000000
 C                   8.0000000  5.0000000  0.0000000
 C                   9.0000000  5.0000000  0.0000000
 C                  10.0000000  5.0000000  0.0000000
 C                   1.0000000  4.0000000  0.0000000
 C                   2.0000000  4.0000000  0.0000000
 C                   3.0000000  4.0000000  0.0000000
 C                   4.0000000  4.0000000  0.0000000
 C                   5.0000000  4.0000000  0.0000000
 C                   1.0000000  0.0000000  0.0000000
 C                   1.0000000  1.0000000  0.0000000
 C                   1.0000000  2.0000000  0.0000000
 C                   1.0000000  3.0000000  0.0000000
 C                   1.0000000  4.0000000  0.0000000
